6
0
Ti	1.965163	1.850387	2.620929
Ti	0.006918	0.004209	0.003664
O	1.981234	0.711562	1.025745
O	1.975072	2.971158	4.229923
O	0.008606	1.126099	3.649366
O	0.00029	2.567509	1.614477
6
1
Ti	1.96337	1.85262	2.613426
Ti	0.014073	0.008672	0.007756
O	1.997853	0.703512	1.027763
O	1.985703	2.96667	4.22801
O	0.018058	1.125411	3.646948
O	0.001265	2.567153	1.626181
6
2
Ti	1.960183	1.854452	2.60547
Ti	0.021471	0.013398	0.012281
O	2.015371	0.69605	1.030351
O	1.997363	2.96188	4.225913
O	0.028337	1.125481	3.645019
O	0.002915	2.56694	1.638803
6
3
Ti	1.955647	1.855876	2.597061
Ti	0.029124	0.018396	0.017242
O	2.033788	0.689173	1.033501
O	2.010005	2.956806	4.223632
O	0.039424	1.126325	3.643559
O	0.00523	2.56688	1.652365
6
4
Ti	1.94981	1.856888	2.588199
Ti	0.037038	0.023674	0.022647
O	2.053105	0.682879	1.037208
O	2.023572	2.95147	4.221167
O	0.051302	1.127962	3.642547
O	0.008205	2.566984	1.666891
6
5
Ti	1.942721	1.857482	2.578887
Ti	0.045225	0.029242	0.028501
O	2.073317	0.67717	1.04147
O	2.038006	2.945889	4.21852
O	0.063953	1.130411	3.641961
O	0.011836	2.567258	1.682411
6
6
Ti	1.93443	1.857656	2.569129
Ti	0.053694	0.035108	0.034809
O	2.094421	0.672048	1.046288
O	2.05324	2.940081	4.215692
O	0.077367	1.133692	3.641775
O	0.016124	2.567708	1.698956
6
7
Ti	1.924987	1.857409	2.558931
Ti	0.062454	0.041281	0.041578
O	2.116411	0.667517	1.051668
O	2.06921	2.93406	4.212684
O	0.091535	1.137829	3.641964
O	0.021074	2.568335	1.71656
6
8
Ti	1.914449	1.856742	2.5483
Ti	0.071515	0.047769	0.048813
O	2.139278	0.663583	1.057617
O	2.085845	2.927839	4.209495
O	0.106452	1.142846	3.642496
O	0.026698	2.569138	1.735259
6
9
Ti	1.90287	1.855654	2.537246
Ti	0.080886	0.054579	0.056516
O	2.163011	0.660255	1.064146
O	2.103075	2.921424	4.206119
O	0.122124	1.148771	3.643338
O	0.033014	2.570111	1.755093
6
10
Ti	1.890311	1.85415	2.525778
Ti	0.090574	0.06172	0.064692
O	2.187597	0.657541	1.071268
O	2.120831	2.914823	4.202552
O	0.138558	1.155631	3.644454
O	0.04005	2.571241	1.776102
6
11
Ti	1.876834	1.852234	2.513911
Ti	0.100586	0.069195	0.07334
O	2.213018	0.655453	1.078999
O	2.139041	2.908035	4.198783
O	0.155775	1.163458	3.6458
O	0.04784	2.572513	1.798328
6
12
Ti	1.862505	1.849909	2.501658
Ti	0.110927	0.077009	0.082459
O	2.239254	0.654002	1.087354
O	2.157635	2.901059	4.194797
O	0.173797	1.172283	3.64733
O	0.056428	2.573902	1.821812
6
13
Ti	1.847394	1.847184	2.489036
Ti	0.121598	0.085164	0.092045
O	2.266275	0.653201	1.096349
O	2.176544	2.893888	4.190578
O	0.192658	1.182137	3.648989
O	0.065865	2.575381	1.846593
6
14
Ti	1.83157	1.844065	2.476063
Ti	0.132601	0.09366	0.102091
O	2.29405	0.653061	1.105999
O	2.195699	2.886514	4.186104
O	0.212393	1.193048	3.65072
O	0.076208	2.576914	1.872702
6
15
Ti	1.81511	1.840561	2.46276
Ti	0.143933	0.102493	0.112585
O	2.322537	0.653588	1.116313
O	2.215033	2.878926	4.181355
O	0.233039	1.20504	3.652459
O	0.087517	2.578462	1.900163
6
16
Ti	1.798088	1.836681	2.44915
Ti	0.155589	0.111657	0.123514
O	2.351689	0.654786	1.127292
O	2.234481	2.871115	4.176309
O	0.254631	1.218126	3.654141
O	0.099849	2.579982	1.928984
6
17
Ti	1.780584	1.832435	2.435257
Ti	0.167559	0.121144	0.134859
O	2.38145	0.656647	1.138928
O	2.253983	2.863073	4.170946
O	0.277195	1.232308	3.655703
O	0.113253	2.581429	1.959154
6
18
Ti	1.762675	1.827836	2.421109
Ti	0.179831	0.130941	0.146599
O	2.411759	0.659155	1.151201
O	2.273482	2.854795	4.165255
O	0.300745	1.24757	3.657085
O	0.127759	2.58276	1.990638
6
19
Ti	1.744441	1.822894	2.406736
Ti	0.192392	0.141034	0.158708
O	2.44255	0.662281	1.164077
O	2.292933	2.846281	4.159231
O	0.325275	1.263879	3.658239
O	0.143382	2.583939	2.02338
